Program Version,EnergyPlus, Version 23.2.0-7636e6b3e9, YMD=2024.06.05 16:32,
   ** Warning ** CheckEnvironmentSpecifications: SimulationControl specified doing design day simulations, but no design environments specified.
   **   ~~~   ** ...No design environment results produced. For these results, add appropriate SizingPeriod:* objects for your simulation.
   ** Warning ** GetHTSurfaceData: Surfaces with interface to Ground found but no "Ground Temperatures" were input.
   **   ~~~   ** Found first in surface=FACE 115
   **   ~~~   ** Defaults, constant throughout the year of (18.0) will be used.
   ** Severe  ** FenestrationSurface:Detailed="FACE 114", invalid blank Outside Boundary Condition Object
   **   ~~~   ** ...when Base surface uses "Surface" as Outside Boundary Condition Object, subsurfaces must also specify specific surfaces in the adjacent zone.
   ** Severe  ** FenestrationSurface:Detailed="FACE 70", invalid blank Outside Boundary Condition Object
   **   ~~~   ** ...when Base surface uses "Surface" as Outside Boundary Condition Object, subsurfaces must also specify specific surfaces in the adjacent zone.
   ** Severe  ** FenestrationSurface:Detailed="FACE 126", invalid blank Outside Boundary Condition Object
   **   ~~~   ** ...when Base surface uses "Surface" as Outside Boundary Condition Object, subsurfaces must also specify specific surfaces in the adjacent zone.
   ** Severe  ** FenestrationSurface:Detailed="FACE 36", invalid blank Outside Boundary Condition Object
   **   ~~~   ** ...when Base surface uses "Surface" as Outside Boundary Condition Object, subsurfaces must also specify specific surfaces in the adjacent zone.
   ** Severe  ** FenestrationSurface:Detailed="FACE 99", invalid blank Outside Boundary Condition Object
   **   ~~~   ** ...when Base surface uses "Surface" as Outside Boundary Condition Object, subsurfaces must also specify specific surfaces in the adjacent zone.
   ** Severe  ** FenestrationSurface:Detailed="FACE 76", invalid blank Outside Boundary Condition Object
   **   ~~~   ** ...when Base surface uses "Surface" as Outside Boundary Condition Object, subsurfaces must also specify specific surfaces in the adjacent zone.
   ** Severe  ** FenestrationSurface:Detailed="FACE 86", invalid blank Outside Boundary Condition Object
   **   ~~~   ** ...when Base surface uses "Surface" as Outside Boundary Condition Object, subsurfaces must also specify specific surfaces in the adjacent zone.
   ** Severe  ** FenestrationSurface:Detailed="FACE 53", invalid blank Outside Boundary Condition Object
   **   ~~~   ** ...when Base surface uses "Surface" as Outside Boundary Condition Object, subsurfaces must also specify specific surfaces in the adjacent zone.
   ** Severe  ** FenestrationSurface:Detailed="FACE 55", invalid blank Outside Boundary Condition Object
   **   ~~~   ** ...when Base surface uses "Surface" as Outside Boundary Condition Object, subsurfaces must also specify specific surfaces in the adjacent zone.
   ** Severe  ** FenestrationSurface:Detailed="FACE 57", invalid blank Outside Boundary Condition Object
   **   ~~~   ** ...when Base surface uses "Surface" as Outside Boundary Condition Object, subsurfaces must also specify specific surfaces in the adjacent zone.
   ** Severe  ** FenestrationSurface:Detailed="FACE 117", invalid blank Outside Boundary Condition Object
   **   ~~~   ** ...when Base surface uses "Surface" as Outside Boundary Condition Object, subsurfaces must also specify specific surfaces in the adjacent zone.
   ** Severe  ** FenestrationSurface:Detailed="FACE 14", invalid blank Outside Boundary Condition Object
   **   ~~~   ** ...when Base surface uses "Surface" as Outside Boundary Condition Object, subsurfaces must also specify specific surfaces in the adjacent zone.
   ** Severe  ** FenestrationSurface:Detailed="FACE 16", invalid blank Outside Boundary Condition Object
   **   ~~~   ** ...when Base surface uses "Surface" as Outside Boundary Condition Object, subsurfaces must also specify specific surfaces in the adjacent zone.
   ** Severe  ** FenestrationSurface:Detailed="FACE 18", invalid blank Outside Boundary Condition Object
   **   ~~~   ** ...when Base surface uses "Surface" as Outside Boundary Condition Object, subsurfaces must also specify specific surfaces in the adjacent zone.
   ** Severe  ** FenestrationSurface:Detailed="FACE 3", invalid blank Outside Boundary Condition Object
   **   ~~~   ** ...when Base surface uses "Surface" as Outside Boundary Condition Object, subsurfaces must also specify specific surfaces in the adjacent zone.
   ** Severe  ** FenestrationSurface:Detailed="FACE 6", invalid blank Outside Boundary Condition Object
   **   ~~~   ** ...when Base surface uses "Surface" as Outside Boundary Condition Object, subsurfaces must also specify specific surfaces in the adjacent zone.
   **  Fatal  ** GetSurfaceData: Errors discovered, program terminates.
   ...Summary of Errors that led to program termination:
   ..... Reference severe error count=16
   ..... Last severe error=FenestrationSurface:Detailed="FACE 6", invalid blank Outside Boundary Condition Object
   ************* Warning:  Node connection errors not checked - most system input has not been read (see previous warning).
   ************* Fatal error -- final processing.  Program exited before simulations began.  See previous error messages.
   ************* EnergyPlus Warmup Error Summary. During Warmup: 0 Warning; 0 Severe Errors.
   ************* EnergyPlus Sizing Error Summary. During Sizing: 0 Warning; 0 Severe Errors.
   ************* EnergyPlus Terminated--Fatal Error Detected. 2 Warning; 16 Severe Errors; Elapsed Time=00hr 00min  0.24sec
