{
   "completed_at" : "20240605T223213Z",
   "completed_status" : "Fail",
   "created_at" : "20240605T212404Z",
   "current_step" : 0,
   "eplusout_err" : "Program Version,EnergyPlus, Version 23.2.0-7636e6b3e9, YMD=2024.06.05 16:32,\n   ** Warning ** CheckEnvironmentSpecifications: SimulationControl specified doing design day simulations, but no design environments specified.\n   **   ~~~   ** ...No design environment results produced. For these results, add appropriate SizingPeriod:* objects for your simulation.\n   ** Warning ** GetHTSurfaceData: Surfaces with interface to Ground found but no \"Ground Temperatures\" were input.\n   **   ~~~   ** Found first in surface=FACE 115\n   **   ~~~   ** Defaults, constant throughout the year of (18.0) will be used.\n   ** Severe  ** FenestrationSurface:Detailed=\"FACE 114\", invalid blank Outside Boundary Condition Object\n   **   ~~~   ** ...when Base surface uses \"Surface\" as Outside Boundary Condition Object, subsurfaces must also specify specific surfaces in the adjacent zone.\n   ** Severe  ** FenestrationSurface:Detailed=\"FACE 70\", invalid blank Outside Boundary Condition Object\n   **   ~~~   ** ...when Base surface uses \"Surface\" as Outside Boundary Condition Object, subsurfaces must also specify specific surfaces in the adjacent zone.\n   ** Severe  ** FenestrationSurface:Detailed=\"FACE 126\", invalid blank Outside Boundary Condition Object\n   **   ~~~   ** ...when Base surface uses \"Surface\" as Outside Boundary Condition Object, subsurfaces must also specify specific surfaces in the adjacent zone.\n   ** Severe  ** FenestrationSurface:Detailed=\"FACE 36\", invalid blank Outside Boundary Condition Object\n   **   ~~~   ** ...when Base surface uses \"Surface\" as Outside Boundary Condition Object, subsurfaces must also specify specific surfaces in the adjacent zone.\n   ** Severe  ** FenestrationSurface:Detailed=\"FACE 99\", invalid blank Outside Boundary Condition Object\n   **   ~~~   ** ...when Base surface uses \"Surface\" as Outside Boundary Condition Object, subsurfaces must also specify specific surfaces in the adjacent zone.\n   ** Severe  ** FenestrationSurface:Detailed=\"FACE 76\", invalid blank Outside Boundary Condition Object\n   **   ~~~   ** ...when Base surface uses \"Surface\" as Outside Boundary Condition Object, subsurfaces must also specify specific surfaces in the adjacent zone.\n   ** Severe  ** FenestrationSurface:Detailed=\"FACE 86\", invalid blank Outside Boundary Condition Object\n   **   ~~~   ** ...when Base surface uses \"Surface\" as Outside Boundary Condition Object, subsurfaces must also specify specific surfaces in the adjacent zone.\n   ** Severe  ** FenestrationSurface:Detailed=\"FACE 53\", invalid blank Outside Boundary Condition Object\n   **   ~~~   ** ...when Base surface uses \"Surface\" as Outside Boundary Condition Object, subsurfaces must also specify specific surfaces in the adjacent zone.\n   ** Severe  ** FenestrationSurface:Detailed=\"FACE 55\", invalid blank Outside Boundary Condition Object\n   **   ~~~   ** ...when Base surface uses \"Surface\" as Outside Boundary Condition Object, subsurfaces must also specify specific surfaces in the adjacent zone.\n   ** Severe  ** FenestrationSurface:Detailed=\"FACE 57\", invalid blank Outside Boundary Condition Object\n   **   ~~~   ** ...when Base surface uses \"Surface\" as Outside Boundary Condition Object, subsurfaces must also specify specific surfaces in the adjacent zone.\n   ** Severe  ** FenestrationSurface:Detailed=\"FACE 117\", invalid blank Outside Boundary Condition Object\n   **   ~~~   ** ...when Base surface uses \"Surface\" as Outside Boundary Condition Object, subsurfaces must also specify specific surfaces in the adjacent zone.\n   ** Severe  ** FenestrationSurface:Detailed=\"FACE 14\", invalid blank Outside Boundary Condition Object\n   **   ~~~   ** ...when Base surface uses \"Surface\" as Outside Boundary Condition Object, subsurfaces must also specify specific surfaces in the adjacent zone.\n   ** Severe  ** FenestrationSurface:Detailed=\"FACE 16\", invalid blank Outside Boundary Condition Object\n   **   ~~~   ** ...when Base surface uses \"Surface\" as Outside Boundary Condition Object, subsurfaces must also specify specific surfaces in the adjacent zone.\n   ** Severe  ** FenestrationSurface:Detailed=\"FACE 18\", invalid blank Outside Boundary Condition Object\n   **   ~~~   ** ...when Base surface uses \"Surface\" as Outside Boundary Condition Object, subsurfaces must also specify specific surfaces in the adjacent zone.\n   ** Severe  ** FenestrationSurface:Detailed=\"FACE 3\", invalid blank Outside Boundary Condition Object\n   **   ~~~   ** ...when Base surface uses \"Surface\" as Outside Boundary Condition Object, subsurfaces must also specify specific surfaces in the adjacent zone.\n   ** Severe  ** FenestrationSurface:Detailed=\"FACE 6\", invalid blank Outside Boundary Condition Object\n   **   ~~~   ** ...when Base surface uses \"Surface\" as Outside Boundary Condition Object, subsurfaces must also specify specific surfaces in the adjacent zone.\n   **  Fatal  ** GetSurfaceData: Errors discovered, program terminates.\n   ...Summary of Errors that led to program termination:\n   ..... Reference severe error count=16\n   ..... Last severe error=FenestrationSurface:Detailed=\"FACE 6\", invalid blank Outside Boundary Condition Object\n   ************* Warning:  Node connection errors not checked - most system input has not been read (see previous warning).\n   ************* Fatal error -- final processing.  Program exited before simulations began.  See previous error messages.\n   ************* EnergyPlus Warmup Error Summary. During Warmup: 0 Warning; 0 Severe Errors.\n   ************* EnergyPlus Sizing Error Summary. During Sizing: 0 Warning; 0 Severe Errors.\n   ************* EnergyPlus Terminated--Fatal Error Detected. 2 Warning; 16 Severe Errors; Elapsed Time=00hr 00min  0.24sec\n\u0000\u0000\u0000\u0000\u0000\u0000\u0000\u0000\u0000\u0000\u0000\u0000\u0000\u0000\u0000\u0000\u0000\u0000\u0000\u0000\u0000\u0000\u0000\u0000\u0000\u0000\u0000\u0000\u0000\u0000\u0000\u0000\u0000\u0000\u0000\u0000\u0000\u0000\u0000\u0000\u0000\u0000\u0000\u0000\u0000\u0000\u0000",
   "file_paths" : 
   [
      "C:/Users/gbv/AppData/Local/Temp/osmodel-79a7-2d8e-3d0c-0fae-1717625716-0/resources/generated_files",
      "./files",
      "./weather",
      "../../files",
      "../../weather",
      "./"
   ],
   "hash" : "09763CC4",
   "run_options" : null,
   "seed_file" : "../005_zonas_termicas.osm",
   "started_at" : "20240605T223151Z",
   "steps" : 
   [
      {
         "arguments" : {},
         "description" : "This measure creates high level tables and charts pulling both from model inputs and EnergyPlus results. It has building level information as well as detail on space types, thermal zones, HVAC systems, envelope characteristics, and economics. Click the heading above a chart to view a table of the chart data.",
         "measure_dir_name" : "OpenStudioResults",
         "modeler_description" : "For the most part consumption data comes from the tabular EnergyPlus results, however there are a few requests added for time series results. Space type and loop details come from the OpenStudio model. The code for this is modular, making it easy to use as a template for your own custom reports. The structure of the report uses bootstrap, and the graphs use dimple js. The new measure warning section will show warnings generated by upstream measures. It will not show forward translation warnings, EnergyPlus warnings, or warnings that might be reported by this measure.",
         "name" : "OpenStudio Results"
      }
   ],
   "updated_at" : "20240605T223213Z",
   "weather_file" : "MEX_MOR_Zacatepec.767270_TMYx.epw"
}